*
*******************************************
*
*BAS21QC
*
*Nexperia
*
*High-voltage switching diode
*
*
*VRmax = 200V
*
*IFmax = 250mA 
*VFmax = 1,25V @ IF = 200mA
*IRmax = 100nA @ VR = 200V
*
*
*
*
*
*  
*
*
*
*Package pinning does not match Spice model pinning.
*Package: DFN1412D-3 (SOT8009, JEDEC MO340-CA)
*
*Package Pin 1: anode   
*Package Pin 2: not connected
*Package Pin 3: cathode
*
*
*Extraction date (week/year): 28/2020
*Simulator: SPICE3
*
*******************************************
*#
.SUBCKT BAS21QC 1 2
R1 1 2 2E+10
D1 1 2
+ DIODE1
D2 1 2
+ DIODE2
*
*The resistor R1 and the diode D2 do not reflect  
*physical devices but improve only modeling  
*in the reverse mode of operation.
*       
.MODEL DIODE1 D
+ IS = 8E-10
+ N = 1.75
+ BV = 267
+ IBV = 0.001
+ RS = 0.77
+ CJO = 8E-13
+ VJ = 0.28
+ M = 0.1
+ FC = 0.5
+ TT = 0
+ EG = 1.1
+ XTI = 3
.MODEL DIODE2 D
+ IS = 2E-09
+ N = 1.9
+ RS = 200
.ENDS
*